** ***************************************************************************
**   Written by : Femap
**   Version    : 2023.2.0
**   From Model : \\ricerca.lan\Archivio\Idroelettrico\RdS\2024\BW\FEMAP\Reservoir\Tsankov Kamak Reservoir-679.modfem
**   Date       : Thu May 30 10:30:53 2024
** ***************************************************************************
** 
*HEADING
Tsankov Kamak
*NODE, NSET=GLOBAL
  200000,    -320.204,      496.76,      679.01
  200001,    -319.735,     496.238,        675.
  200002,    -319.275,     495.724,        671.
  200003,    -318.824,      495.22,        667.
  200004,     -323.55,      490.75,        663.
  200005,    -328.277,      486.28,        659.
  200006,     -332.54,     482.291,       655.4
  200007,    -336.217,     478.813,     650.933
  200008,     -339.43,     475.817,     646.867
  200009,    -342.644,      472.82,       642.8
  200010,    -346.847,      469.14,       638.8
  200011,     -351.05,      465.46,       634.8
  200012,    -355.254,      461.78,       630.8
  200013,    -358.667,     458.797,     626.867
  200014,     -362.08,     455.813,     622.933
  200015,    -365.494,      452.83,        619.
  200016,     -369.65,     448.807,        615.
  200017,    -373.807,     444.783,        611.
  200018,    -377.964,      440.76,        607.
  200019,    -381.127,     437.203,        603.
** ... 21969 like lines cut
*ELEMENT, TYPE=C3D8, ELSET=Water
 200000, 200001, 200089, 200088, 200000, 202000, 202088, 202087, 201999
 200001, 202000, 202088, 202087, 201999, 203999, 204087, 204086, 203998
 200002, 200089, 200093, 200092, 200088, 202088, 202092, 202091, 202087
 200003, 202088, 202092, 202091, 202087, 204087, 204091, 204090, 204086
 200004, 203999, 204087, 204086, 203998, 205998, 206086, 206085, 205997
 200005, 204087, 204091, 204090, 204086, 206086, 206090, 206089, 206085
 200006, 200093, 200097, 200096, 200092, 202092, 202096, 202095, 202091
 200007, 202092, 202096, 202095, 202091, 204091, 204095, 204094, 204090
 200008, 204091, 204095, 204094, 204090, 206090, 206094, 206093, 206089
 200009, 205998, 206086, 206085, 205997, 207997, 208085, 208084, 207996
 200010, 206086, 206090, 206089, 206085, 208085, 208089, 208088, 208084
 200011, 206090, 206094, 206093, 206089, 208089, 208093, 208092, 208088
 200012, 200097, 200102, 200101, 200096, 202096, 202101, 202100, 202095
 200013, 202096, 202101, 202100, 202095, 204095, 204100, 204099, 204094
 200014, 204095, 204100, 204099, 204094, 206094, 206099, 206098, 206093
 200015, 206094, 206099, 206098, 206093, 208093, 208098, 208097, 208092
 200016, 207997, 208085, 208084, 207996, 209996, 210084, 210083, 209995
 200017, 208085, 208089, 208088, 208084, 210084, 210088, 210087, 210083
 200018, 208089, 208093, 208092, 208088, 210088, 210092, 210091, 210087
 200019, 208093, 208098, 208097, 208092, 210092, 210097, 210096, 210091
** ... 19080 like lines cut
** Femap Group 1 : Reservoir
*ELSET, ELSET=Reservoir, GENERATE
200000,219099,1
** Femap Group 2 : Node free field
*NSET, NSET=Node_free_field
200000,200074,200088,200092,200096,200101,200106,200112,200118,200125
200134,200143,200152,200162,200172,200183,200194,200213,200233,200246
200259,200272,200285,200300,200318,200337,200358,200380,200404,200427
200450,200473,200496,200520,200544,200568,200593,200618,200641,200658
200686,200714,200743,200772,200802,200832,200862,200892,200922,200952
200982,201012,201042,201043,201073,201103,201133,201163,201193,201223
201253,201283,201312,201341,201369,201397,201415,201437,201462,201487
201511,201535,201559,201582,201605,201628,201651,201673,201696,201716
201735,201753,201770,201787,201803,201819,201834,201857,201875,201889
201901,201913,201924,201934,201944,201953,201962,201969,201976,201982
201988,201994,201998,201999,202073,202087,202091,202095,202100,202105
202111,202117,202124,202133,202142,202151,202161,202171,202182,202193
202212,202232,202245,202258,202271,202284,202299,202317,202336,202357
202379,202403,202426,202449,202472,202495,202519,202543,202567,202592
202617,202640,202657,202685,202713,202742,202771,202801,202831,202861
202891,202921,202951,202981,203011,203041,203042,203072,203102,203132
203162,203192,203222,203252,203282,203311,203340,203368,203396,203414
203436,203461,203486,203510,203534,203558,203581,203604,203627,203650
203672,203695,203715,203734,203752,203769,203786,203802,203818,203833
203856,203874,203888,203900,203912,203923,203933,203943,203952,203961
** ... 94 like lines cut
*ELSET, ELSET=OUT_CONT, GENERATE
200000,219099,1
** Femap Property 1 : Water
*ORIENTATION, NAME=GLOBAL_0, DEFINITION=COORDINATES, SYSTEM=RECTANGULAR
        1.,        0.,        0.,        0.,        1.,        0.
*SOLID SECTION, ELSET=Water, MATERIAL=Water, ORIENTATION=GLOBAL_0
** Femap Material 1 : Water
*MATERIAL, NAME=Water
*ELASTIC, TYPE=ISOTROPIC
        0.,      0.29,        0.
** Femap Region 1 : Bacino-Diga
*SURFACE, NAME=Bacino-Diga, TYPE=ELEMENT
 200000, S1
 200002, S1
 200006, S1
 200012, S1
 200020, S1
 200030, S1
 200042, S1
 200056, S1
 200080, S1
 200090, S1
 200100, S1
 200110, S1
 200120, S1
 200130, S1
 200140, S1
 200150, S1
 200152, S1
 200156, S1
 200162, S1
 200170, S1
** ... 1890 like lines cut
** Femap Region 2 : Bacino-Laterale
*SURFACE, NAME=Bacino-Laterale, TYPE=ELEMENT
 200000, S6
 200001, S6
 200004, S6
 200009, S6
 200016, S6
 200025, S6
 200036, S6
 200049, S6
 200064, S6
 200072, S6
 200150, S6
 200151, S6
 200154, S6
 200159, S6
 200166, S6
 200175, S6
 200186, S6
 200199, S6
 200214, S6
 200215, S6
** ... 720 like lines cut
** Femap Region 3 : Bacino-Monte
*SURFACE, NAME=Bacino-Monte, TYPE=ELEMENT
 200072, S2
 200073, S2
 200074, S2
 200075, S2
 200076, S2
 200077, S2
 200078, S2
 200079, S2
 200089, S2
 200099, S2
 200109, S2
 200119, S2
 200129, S2
 200139, S2
 200149, S2
 200215, S2
 200217, S2
 200219, S2
 200221, S2
 200223, S2
** ... 1890 like lines cut
** Load Step 1 -------------------------------------------------------
*STEP, INC=100
Untitled
*STATIC

*EL PRINT, FREQUENCY = 0
*NODE PRINT, FREQUENCY = 0
*FILE FORMAT, ASCII, ZERO INCREMENT
*NODE FILE
    U,
*NODE FILE
   RF,
*EL FILE, ELSET=OUT_CONT, POSITION=CENTROIDAL
    S,
 SINV,
*EL FILE, ELSET=OUT_CONT, POSITION=CENTROIDAL
*EL FILE, ELSET=OUT_CONT, POSITION=CENTROIDAL
    E,
   PE,
   IE,
*END STEP
